Version 4
SHEET 1 1356 1300
WIRE 192 96 192 32
WIRE 432 112 432 32
WIRE 400 128 224 128
WIRE 592 128 592 48
WIRE 784 128 784 48
WIRE 576 144 464 144
WIRE 752 144 624 144
WIRE 896 144 896 64
WIRE 880 160 816 160
WIRE 1008 160 928 160
WIRE 752 176 704 176
WIRE 192 208 192 160
WIRE 432 208 432 176
WIRE 400 224 400 160
WIRE 400 224 368 224
WIRE 592 240 592 160
WIRE 896 256 896 176
WIRE 784 272 784 192
WIRE 192 416 192 384
WIRE 304 432 304 384
WIRE 432 432 432 400
WIRE 288 448 224 448
WIRE 400 448 336 448
WIRE 576 464 464 464
WIRE 704 464 704 176
WIRE 704 464 624 464
WIRE 192 544 192 480
WIRE 304 544 304 464
WIRE 432 544 432 496
WIRE 352 672 192 672
WIRE 608 672 608 656
WIRE 608 672 352 672
WIRE 720 672 608 672
WIRE 832 672 720 672
WIRE 976 672 832 672
WIRE 192 720 192 672
WIRE 352 736 352 672
WIRE 608 736 608 672
WIRE 336 752 224 752
WIRE 576 752 384 752
WIRE 720 752 720 672
WIRE 832 752 832 672
WIRE 704 768 640 768
WIRE 800 768 752 768
WIRE 976 768 976 672
WIRE 576 784 496 784
WIRE 960 784 864 784
WIRE 1088 784 1008 784
WIRE 352 928 224 928
WIRE 496 928 496 784
WIRE 496 928 400 928
WIRE 496 1072 496 1008
WIRE 480 1088 224 1088
WIRE 720 1088 528 1088
WIRE 224 1168 224 1088
WIRE 224 1168 128 1168
WIRE 496 1184 496 1104
FLAG 160 112 a1
IOPIN 160 112 In
FLAG 160 432 a1
IOPIN 160 432 In
FLAG 160 144 b1
IOPIN 160 144 In
FLAG 160 464 b1
IOPIN 160 464 In
FLAG 400 480 cin
IOPIN 400 480 In
FLAG 1008 160 o
IOPIN 1008 160 Out
FLAG 320 224 cin
IOPIN 320 224 In
FLAG 160 736 a1
IOPIN 160 736 In
FLAG 160 768 b1
IOPIN 160 768 In
FLAG 160 912 cin
IOPIN 160 912 In
FLAG 160 944 b1
IOPIN 160 944 In
FLAG 64 1152 cin
IOPIN 64 1152 In
FLAG 64 1184 a1
IOPIN 64 1184 In
FLAG 192 32 Vdd
IOPIN 192 32 In
FLAG 432 32 Vdd
IOPIN 432 32 In
FLAG 592 48 Vdd
IOPIN 592 48 In
FLAG 784 48 Vdd
IOPIN 784 48 In
FLAG 896 64 Vdd
IOPIN 896 64 In
FLAG 432 400 Vdd
IOPIN 432 400 In
FLAG 304 384 Vdd
IOPIN 304 384 In
FLAG 192 384 Vdd
IOPIN 192 384 In
FLAG 592 448 Vdd
IOPIN 592 448 In
FLAG 608 656 Vdd
IOPIN 608 656 In
FLAG 368 912 Vdd
IOPIN 368 912 In
FLAG 192 896 Vdd
IOPIN 192 896 In
FLAG 96 1136 Vdd
IOPIN 96 1136 In
FLAG 496 1008 Vdd
IOPIN 496 1008 In
FLAG 336 208 Vdd
IOPIN 336 208 In
FLAG 192 208 Vss
IOPIN 192 208 In
FLAG 336 240 Vss
IOPIN 336 240 In
FLAG 432 208 Vss
IOPIN 432 208 In
FLAG 592 240 Vss
IOPIN 592 240 In
FLAG 784 272 Vss
IOPIN 784 272 In
FLAG 896 256 Vss
IOPIN 896 256 In
FLAG 592 480 Vss
IOPIN 592 480 In
FLAG 432 544 Vss
IOPIN 432 544 In
FLAG 304 544 Vss
IOPIN 304 544 In
FLAG 192 544 Vss
IOPIN 192 544 In
FLAG 192 784 Vss
IOPIN 192 784 In
FLAG 352 768 Vss
IOPIN 352 768 In
FLAG 608 800 Vss
IOPIN 608 800 In
FLAG 720 784 Vss
IOPIN 720 784 In
FLAG 832 816 Vss
IOPIN 832 816 In
FLAG 976 800 Vss
IOPIN 976 800 In
FLAG 368 944 Vss
IOPIN 368 944 In
FLAG 192 960 Vss
IOPIN 192 960 In
FLAG 96 1200 Vss
IOPIN 96 1200 In
FLAG 496 1184 Vss
IOPIN 496 1184 In
FLAG 1088 784 cout
IOPIN 1088 784 Out
FLAG 720 1088 ca
FLAG 800 800 ca
SYMBOL xor 192 128 R0
SYMATTR InstName X1
SYMATTR SpiceLine ll=180n wn={nnw} wp={nnw*mp}
SYMBOL xor 192 448 R0
SYMATTR InstName X2
SYMATTR SpiceLine ll=180n wn={nnw} wp={nnw*mp}
SYMBOL nand 432 144 R0
SYMATTR InstName X3
SYMATTR SpiceLine ll=180n wn={nnw} wp={nnw*mp}
SYMBOL nand 432 464 R0
SYMATTR InstName X4
SYMATTR SpiceLine ll=180n wn={nnw} wp={nnw*mp}
SYMBOL inv 304 448 R0
SYMATTR InstName X5
SYMATTR SpiceLine ll=180n wn={nnw} wp={nnw*mp}
SYMBOL inv 592 144 R0
SYMATTR InstName X6
SYMATTR SpiceLine ll=180n wn={nnw} wp={nnw*mp}
SYMBOL inv 592 464 R0
SYMATTR InstName X7
SYMATTR SpiceLine ll=180n wn={nnw} wp={nnw*mp}
SYMBOL nor 784 160 R0
SYMATTR InstName X8
SYMATTR SpiceLine ll=180n wn={nnw} wp={nnw*mp}
SYMBOL inv 896 160 R0
SYMATTR InstName X9
SYMATTR SpiceLine ll=180n wn={nnw} wp={nnw*mp}
SYMBOL inv 336 224 R0
SYMATTR InstName X10
SYMATTR SpiceLine ll=180n wn={nnw} wp={nnw*mp}
SYMBOL nand 192 752 R0
SYMATTR InstName X11
SYMATTR SpiceLine ll=180n wn={nnw} wp={nnw*mp}
SYMBOL nand 192 928 R0
SYMATTR InstName X12
SYMATTR SpiceLine ll=180n wn={nnw} wp={nnw*mp}
SYMBOL nand 96 1168 R0
SYMATTR InstName X13
SYMATTR SpiceLine ll=180n wn={nnw} wp={nnw*mp}
SYMBOL inv 352 752 R0
SYMATTR InstName X14
SYMATTR SpiceLine ll=180n wn={nnw} wp={nnw*mp}
SYMBOL inv 368 928 R0
WINDOW 0 24 -13 Left 2
SYMATTR InstName X15
SYMATTR SpiceLine ll=180n wn={nnw} wp={nnw*mp}
SYMBOL inv 496 1088 R0
SYMATTR InstName X16
SYMATTR SpiceLine ll=180n wn={nnw} wp={nnw*mp}
SYMBOL nor 832 784 R0
SYMATTR InstName X17
SYMATTR SpiceLine ll=180n wn={nnw} wp={nnw*mp}
SYMBOL nor 608 768 R0
SYMATTR InstName X18
SYMATTR SpiceLine ll=180n wn={nnw} wp={nnw*mp}
SYMBOL inv 720 768 R0
SYMATTR InstName X19
SYMATTR SpiceLine ll=180n wn={nnw} wp={nnw*mp}
SYMBOL inv 976 784 R0
SYMATTR InstName X20
SYMATTR SpiceLine ll=180n wn={nnw} wp={nnw*mp}
