Version 4
SHEET 1 1356 1300
WIRE 192 96 192 32
WIRE 432 112 432 80
WIRE 400 128 224 128
WIRE 608 144 464 144
WIRE 192 208 192 160
WIRE 432 240 432 176
WIRE 368 416 208 416
WIRE 624 416 624 400
WIRE 624 416 368 416
WIRE 736 416 624 416
WIRE 848 416 736 416
WIRE 992 416 848 416
WIRE 208 464 208 416
WIRE 368 480 368 416
WIRE 624 480 624 416
WIRE 352 496 240 496
WIRE 592 496 400 496
WIRE 736 496 736 416
WIRE 848 496 848 416
WIRE 720 512 656 512
WIRE 816 512 768 512
WIRE 992 512 992 416
WIRE 592 528 512 528
WIRE 976 528 880 528
WIRE 1104 528 1024 528
WIRE 368 672 240 672
WIRE 512 672 512 528
WIRE 512 672 416 672
WIRE 512 816 512 752
WIRE 496 832 240 832
WIRE 736 832 544 832
WIRE 240 912 240 832
WIRE 240 912 144 912
WIRE 512 928 512 848
FLAG 160 112 a1
IOPIN 160 112 In
FLAG 160 144 b1
IOPIN 160 144 In
FLAG 608 144 o
IOPIN 608 144 Out
FLAG 176 480 a1
IOPIN 176 480 In
FLAG 176 512 b1
IOPIN 176 512 In
FLAG 176 656 cin
IOPIN 176 656 In
FLAG 176 688 b1
IOPIN 176 688 In
FLAG 80 896 cin
IOPIN 80 896 In
FLAG 80 928 a1
IOPIN 80 928 In
FLAG 192 32 Vdd
IOPIN 192 32 In
FLAG 432 80 Vdd
IOPIN 432 80 In
FLAG 624 400 Vdd
IOPIN 624 400 In
FLAG 384 656 Vdd
IOPIN 384 656 In
FLAG 208 640 Vdd
IOPIN 208 640 In
FLAG 112 880 Vdd
IOPIN 112 880 In
FLAG 512 752 Vdd
IOPIN 512 752 In
FLAG 192 208 Vss
IOPIN 192 208 In
FLAG 432 240 Vss
IOPIN 432 240 In
FLAG 208 528 Vss
IOPIN 208 528 In
FLAG 368 512 Vss
IOPIN 368 512 In
FLAG 624 544 Vss
IOPIN 624 544 In
FLAG 736 528 Vss
IOPIN 736 528 In
FLAG 848 560 Vss
IOPIN 848 560 In
FLAG 992 544 Vss
IOPIN 992 544 In
FLAG 384 688 Vss
IOPIN 384 688 In
FLAG 208 704 Vss
IOPIN 208 704 In
FLAG 112 944 Vss
IOPIN 112 944 In
FLAG 512 928 Vss
IOPIN 512 928 In
FLAG 1104 528 cout
IOPIN 1104 528 Out
FLAG 736 832 ca
FLAG 816 544 ca
FLAG 400 160 cin
IOPIN 400 160 In
SYMBOL xor 192 128 R0
SYMATTR InstName X1
SYMATTR SpiceLine ll=180n wn={nnw*2} wp={nnw*mp*4.2}
SYMBOL xor 432 144 R0
SYMATTR InstName X2
SYMATTR SpiceLine ll=180n wn={nnw*2} wp={nnw*mp*4.2}
SYMBOL nand 208 496 R0
SYMATTR InstName X11
SYMATTR SpiceLine ll=180n wn={nnw*2} wp={nnw*mp*1.27}
SYMBOL nand 208 672 R0
SYMATTR InstName X12
SYMATTR SpiceLine ll=180n wn={nnw*2} wp={nnw*mp*1.27}
SYMBOL nand 112 912 R0
SYMATTR InstName X13
SYMATTR SpiceLine ll=180n wn={nnw*2} wp={nnw*mp*1.27}
SYMBOL inv 368 496 R0
SYMATTR InstName X14
SYMATTR SpiceLine ll=180n wn={nnw} wp={nnw*mp*2.2}
SYMBOL inv 384 672 R0
WINDOW 0 24 -13 Left 2
SYMATTR InstName X15
SYMATTR SpiceLine ll=180n wn={nnw} wp={nnw*mp*2.2}
SYMBOL inv 512 832 R0
SYMATTR InstName X16
SYMATTR SpiceLine ll=180n wn={nnw} wp={nnw*mp*2.2}
SYMBOL nor 848 528 R0
SYMATTR InstName X17
SYMATTR SpiceLine ll=180n wn={nnw} wp={nnw*mp*4.2}
SYMBOL nor 624 512 R0
SYMATTR InstName X18
SYMATTR SpiceLine ll=180n wn={nnw} wp={nnw*mp*4.2}
SYMBOL inv 736 512 R0
SYMATTR InstName X19
SYMATTR SpiceLine ll=180n wn={nnw} wp={nnw*mp*2.2}
SYMBOL inv 992 528 R0
SYMATTR InstName X20
SYMATTR SpiceLine ll=180n wn={nnw} wp={nnw*mp*2.2}
