Version 4
SHEET 1 2516 2100
WIRE 1392 368 1392 320
WIRE 1360 384 1280 384
WIRE 1600 384 1600 336
WIRE 1568 400 1424 400
WIRE 1360 416 1280 416
WIRE 1712 416 1632 416
WIRE 1568 432 1504 432
WIRE 2000 432 2000 384
WIRE 1968 448 1824 448
WIRE 2208 448 2208 400
WIRE 1392 464 1392 432
WIRE 2032 464 2016 464
WIRE 2176 464 2032 464
WIRE 1600 480 1600 448
WIRE 1968 480 1824 480
WIRE 2400 480 2240 480
WIRE 2000 528 2000 496
WIRE 2208 544 2208 512
WIRE 1392 656 1392 608
WIRE 1360 672 1280 672
WIRE 1600 672 1600 624
WIRE 1424 688 1408 688
WIRE 1568 688 1424 688
WIRE 1360 704 1280 704
WIRE 1792 704 1632 704
WIRE 1392 752 1392 720
WIRE 1600 768 1600 736
WIRE 1360 1008 1296 1008
WIRE 1632 1024 1424 1024
WIRE 1360 1040 1280 1040
WIRE 1632 1168 1632 1024
WIRE 1856 1184 1696 1184
WIRE 1936 1184 1904 1184
WIRE 1360 1200 1280 1200
WIRE 1632 1216 1632 1200
WIRE 1632 1216 1424 1216
WIRE 1360 1232 1280 1232
WIRE 1936 1264 1936 1184
WIRE 1952 1264 1936 1264
WIRE 2368 1280 2016 1280
WIRE 1952 1296 1632 1296
WIRE 1360 1392 1280 1392
WIRE 1632 1408 1632 1296
WIRE 1632 1408 1424 1408
WIRE 1360 1424 1296 1424
WIRE 1360 1584 1296 1584
WIRE 1632 1600 1424 1600
WIRE 1360 1616 1280 1616
WIRE 1632 1744 1632 1600
WIRE 1856 1760 1696 1760
WIRE 1936 1760 1904 1760
WIRE 1360 1776 1280 1776
WIRE 1632 1792 1632 1776
WIRE 1632 1792 1424 1792
WIRE 1360 1808 1280 1808
WIRE 1936 1840 1936 1760
WIRE 1952 1840 1936 1840
WIRE 2368 1856 2016 1856
WIRE 2448 1856 2368 1856
WIRE 1952 1872 1632 1872
WIRE 1296 1968 1280 1968
WIRE 1360 1968 1296 1968
WIRE 1632 1984 1632 1872
WIRE 1632 1984 1424 1984
WIRE 1360 2000 1296 2000
FLAG 1504 432 cin
FLAG 1600 336 vdd
FLAG 1712 416 o1
FLAG 1792 704 o2
FLAG 1280 384 a1
FLAG 1280 672 a2
FLAG 1824 448 a3
FLAG 1280 416 b1
FLAG 1280 704 b2
FLAG 1824 480 b3
FLAG 1600 480 vss
FLAG 1392 464 vss
FLAG 1392 320 vdd
FLAG 1392 752 vss
FLAG 1392 608 vdd
FLAG 1600 624 vdd
FLAG 1600 768 vss
FLAG 1296 1008 cin
FLAG 1392 1056 vss
FLAG 1392 1248 vss
FLAG 1392 1440 vss
FLAG 1392 1376 vdd
FLAG 1392 1184 vdd
FLAG 1392 992 vdd
FLAG 1664 1216 vss
FLAG 1664 1152 vdd
FLAG 1872 1168 vdd
FLAG 1872 1200 vss
FLAG 1984 1312 vss
FLAG 1984 1248 vdd
FLAG 1280 1040 a1
FLAG 1280 1200 a1
FLAG 1280 1232 b1
FLAG 1280 1392 b1
FLAG 1296 1424 cin
FLAG 2368 1280 C2
FLAG 1568 720 C2
FLAG 2000 528 vss
FLAG 2000 384 vdd
FLAG 2208 400 vdd
FLAG 2208 544 vss
FLAG 1392 1632 vss
FLAG 1392 1824 vss
FLAG 1392 2016 vss
FLAG 1392 1952 vdd
FLAG 1392 1760 vdd
FLAG 1392 1568 vdd
FLAG 1664 1792 vss
FLAG 1664 1728 vdd
FLAG 1872 1744 vdd
FLAG 1872 1776 vss
FLAG 1984 1888 vss
FLAG 1984 1824 vdd
FLAG 1296 1584 C2
FLAG 1296 2000 C2
FLAG 1280 1616 a2
FLAG 1280 1776 a2
FLAG 1280 1808 b2
FLAG 1296 1968 b2
FLAG 2368 1856 C3
FLAG 2176 496 C3
FLAG 2448 1856 cout
FLAG 2400 480 o3
SYMBOL xor 1392 400 R0
SYMATTR InstName X1
SYMATTR SpiceLine ll=180n wn={nnw} wp={nnw*mp}
SYMBOL xor 1600 416 R0
WINDOW 0 -7 -3 Left 2
SYMATTR InstName X2
SYMATTR SpiceLine ll=180n wn={nnw} wp={nnw*mp}
SYMBOL xor 1392 688 R0
SYMATTR InstName X3
SYMATTR SpiceLine ll=180n wn={nnw} wp={nnw*mp}
SYMBOL xor 1600 704 R0
WINDOW 0 -7 -3 Left 2
SYMATTR InstName X4
SYMATTR SpiceLine ll=180n wn={nnw} wp={nnw*mp}
SYMBOL nand 1392 1024 R0
SYMATTR InstName X5
SYMATTR SpiceLine ll=180n wn={nnw} wp={nnw*mp}
SYMBOL nand 1392 1216 R0
SYMATTR InstName X6
SYMATTR SpiceLine ll=180n wn={nnw} wp={nnw*mp}
SYMBOL nand 1392 1408 R0
SYMATTR InstName X7
SYMATTR SpiceLine ll=180n wn={nnw} wp={nnw*mp}
SYMBOL inv 1872 1184 R0
SYMATTR InstName X8
SYMATTR SpiceLine ll=180n wn={nnw} wp={nnw*mp}
SYMBOL nand 1664 1184 R0
SYMATTR InstName X9
SYMATTR SpiceLine ll=180n wn={nnw} wp={nnw*mp}
SYMBOL nand 1984 1280 R0
SYMATTR InstName X10
SYMATTR SpiceLine ll=180n wn={nnw} wp={nnw*mp}
SYMBOL xor 2000 464 R0
SYMATTR InstName X11
SYMATTR SpiceLine ll=180n wn={nnw} wp={nnw*mp}
SYMBOL xor 2208 480 R0
WINDOW 0 -7 -3 Left 2
SYMATTR InstName X12
SYMATTR SpiceLine ll=180n wn={nnw} wp={nnw*mp}
SYMBOL nand 1392 1600 R0
SYMATTR InstName X14
SYMATTR SpiceLine ll=180n wn={nnw} wp={nnw*mp}
SYMBOL nand 1392 1792 R0
SYMATTR InstName X15
SYMATTR SpiceLine ll=180n wn={nnw} wp={nnw*mp}
SYMBOL nand 1392 1984 R0
SYMATTR InstName X16
SYMATTR SpiceLine ll=180n wn={nnw} wp={nnw*mp}
SYMBOL inv 1872 1760 R0
SYMATTR InstName X17
SYMATTR SpiceLine ll=180n wn={nnw} wp={nnw*mp}
SYMBOL nand 1664 1760 R0
SYMATTR InstName X18
SYMATTR SpiceLine ll=180n wn={nnw} wp={nnw*mp}
SYMBOL nand 1984 1856 R0
SYMATTR InstName X19
SYMATTR SpiceLine ll=180n wn={nnw} wp={nnw*mp}
