Version 4
SHEET 1 1924 1352
WIRE 1488 368 1488 352
WIRE 1424 400 1344 400
WIRE 1776 432 1568 432
WIRE 1424 448 1344 448
WIRE 1712 464 1568 464
WIRE 1424 496 1360 496
WIRE 1776 592 1776 432
WIRE 1776 592 1280 592
WIRE 1424 704 1344 704
WIRE 1760 736 1568 736
WIRE 1424 752 1344 752
WIRE 1280 800 1280 592
WIRE 1424 800 1280 800
WIRE 1760 912 1760 736
WIRE 1760 912 1264 912
WIRE 1424 1072 1344 1072
WIRE 1680 1104 1568 1104
WIRE 1424 1120 1344 1120
WIRE 1680 1136 1568 1136
WIRE 1264 1168 1264 912
WIRE 1424 1168 1264 1168
WIRE 1488 1248 1488 1216
FLAG 1680 1104 cout
FLAG 1360 496 cin
FLAG 1488 352 vdd
FLAG 1712 464 o1
FLAG 1568 768 o2
FLAG 1680 1136 o3
FLAG 1344 400 a1
FLAG 1344 704 a2
FLAG 1344 1072 a3
FLAG 1344 448 b1
FLAG 1344 752 b2
FLAG 1344 1120 b3
FLAG 1488 1248 vss
FLAG 1488 672 vdd
FLAG 1488 1040 vdd
FLAG 1488 848 vss
FLAG 1488 544 vss
SYMBOL add1b 1488 448 R0
SYMATTR InstName X1
SYMATTR SpiceLine ll=180n wn={nnw} wp={nnw*mp}
SYMBOL add1b 1488 752 R0
SYMATTR InstName X2
SYMBOL add1b 1488 1120 R0
SYMATTR InstName X3
