Version 4
SHEET 1 2644 1352
WIRE 1552 368 1552 352
WIRE 1488 400 1408 400
WIRE 1872 416 1792 416
WIRE 1728 432 1632 432
WIRE 2192 432 2112 432
WIRE 1488 448 1408 448
WIRE 2064 448 2016 448
WIRE 1648 464 1632 464
WIRE 1872 464 1792 464
WIRE 2448 464 2336 464
WIRE 2192 480 2112 480
WIRE 1488 496 1424 496
WIRE 2448 496 2336 496
WIRE 1728 512 1728 432
WIRE 1872 512 1728 512
WIRE 2064 528 2064 448
WIRE 2192 528 2064 528
WIRE 2256 608 2256 576
FLAG 2448 464 cout
FLAG 1424 496 cin
FLAG 1552 352 vdd
FLAG 1648 464 o1
FLAG 2016 480 o2
FLAG 2448 496 o3
FLAG 1408 400 a1
FLAG 1792 416 a2
FLAG 2112 432 a3
FLAG 1408 448 b1
FLAG 1792 464 b2
FLAG 2112 480 b3
FLAG 2256 608 vss
FLAG 1936 384 vdd
FLAG 2256 400 vdd
FLAG 1936 560 vss
FLAG 1552 544 vss
SYMBOL add1b 1552 448 R0
WINDOW 0 -42 -87 Bottom 2
SYMATTR InstName X1
SYMATTR SpiceLine ll=180n wn={nnw} wp={nnw*mp}
SYMBOL add1b 1936 464 R0
WINDOW 0 -56 -85 Bottom 2
SYMATTR InstName X2
SYMBOL add1b 2256 480 R0
WINDOW 0 -53 -83 Bottom 2
SYMATTR InstName X3
