Version 4
SHEET 1 880 1032
WIRE -112 160 -112 144
WIRE -144 176 -224 176
WIRE 160 192 -80 192
WIRE 288 192 208 192
WIRE -144 208 -224 208
WIRE -144 336 -224 336
WIRE 160 352 -80 352
WIRE 288 352 208 352
WIRE -144 368 -224 368
WIRE -144 608 -224 608
WIRE 160 624 -80 624
WIRE 320 624 208 624
WIRE -144 640 -224 640
WIRE -112 688 -112 656
FLAG -112 144 vdd
FLAG 288 192 o1
FLAG 288 352 o2
FLAG 320 624 o3
FLAG -224 176 a1
FLAG -224 336 a2
FLAG -224 608 a3
FLAG -224 208 b1
FLAG -224 368 b2
FLAG -224 640 b3
FLAG -112 688 vss
FLAG -112 384 vss
FLAG -112 224 vss
FLAG -112 320 vdd
FLAG -112 592 vdd
FLAG 176 640 vss
FLAG 176 368 vss
FLAG 176 208 vss
FLAG 176 176 vdd
FLAG 176 336 vdd
FLAG 176 608 vdd
SYMBOL nand -112 192 R0
SYMATTR InstName X1
SYMATTR SpiceLine ll=180n wn={nnw} wp={nnw*mp}
SYMBOL nand -112 352 R0
SYMATTR InstName X2
SYMATTR SpiceLine ll=180n wn={nnw} wp={nnw*mp}
SYMBOL nand -112 624 R0
SYMATTR InstName X3
SYMATTR SpiceLine ll=180n wn={nnw} wp={nnw*mp}
SYMBOL inv 176 192 R0
SYMATTR InstName X4
SYMATTR SpiceLine ll=180n wn={nnw} wp={nnw*mp}
SYMBOL inv 176 352 R0
SYMATTR InstName X5
SYMATTR SpiceLine ll=180n wn={nnw} wp={nnw*mp}
SYMBOL inv 176 624 R0
SYMATTR InstName X6
SYMATTR SpiceLine ll=180n wn={nnw} wp={nnw*mp}
