Version 4
SHEET 1 880 1032
WIRE -112 160 -112 144
WIRE -144 176 -176 176
WIRE 32 192 -80 192
WIRE 160 192 80 192
WIRE -144 208 -176 208
WIRE -144 336 -176 336
WIRE 32 352 -80 352
WIRE 160 352 80 352
WIRE -144 368 -176 368
WIRE -144 496 -176 496
WIRE 32 512 -80 512
WIRE 176 512 80 512
WIRE -144 528 -176 528
WIRE -112 576 -112 544
FLAG -112 144 vdd
FLAG 160 192 o1
FLAG 160 352 o2
FLAG 176 512 o3
FLAG -176 176 a1
FLAG -176 336 a2
FLAG -176 496 a3
FLAG -176 208 b1
FLAG -176 368 b2
FLAG -176 528 b3
FLAG -112 576 vss
FLAG -112 384 vss
FLAG -112 224 vss
FLAG -112 320 vdd
FLAG -112 480 vdd
FLAG 48 528 vss
FLAG 48 368 vss
FLAG 48 208 vss
FLAG 48 176 vdd
FLAG 48 336 vdd
FLAG 48 496 vdd
SYMBOL nand -112 192 R0
SYMATTR InstName X1
SYMATTR SpiceLine ll=180n wn={nnw} wp={nnw*mp}
SYMBOL nand -112 352 R0
SYMATTR InstName X2
SYMATTR SpiceLine ll=180n wn={nnw} wp={nnw*mp}
SYMBOL nand -112 512 R0
SYMATTR InstName X3
SYMATTR SpiceLine ll=180n wn={nnw} wp={nnw*mp}
SYMBOL inv 48 192 R0
WINDOW 0 20 -26 Left 2
SYMATTR InstName X4
SYMATTR SpiceLine ll=180n wn={nnw} wp={nnw*mp}
SYMBOL inv 48 352 R0
WINDOW 0 13 -25 Left 2
SYMATTR InstName X5
SYMATTR SpiceLine ll=180n wn={nnw} wp={nnw*mp}
SYMBOL inv 48 512 R0
WINDOW 0 18 -27 Left 2
SYMATTR InstName X6
SYMATTR SpiceLine ll=180n wn={nnw} wp={nnw*mp}
