Version 4
SHEET 1 1936 1032
WIRE 1328 64 1328 48
WIRE 1328 64 960 64
WIRE 960 80 960 64
WIRE 960 96 960 80
WIRE 1008 160 992 160
WIRE 1072 160 1008 160
WIRE 960 272 960 240
WIRE 976 336 960 336
WIRE 1008 416 992 416
WIRE 1072 416 1008 416
WIRE 960 544 960 496
WIRE 992 720 976 720
WIRE 1088 720 992 720
WIRE 944 848 944 800
FLAG 1328 48 vdd
FLAG 1072 160 o1
FLAG 1072 416 o2
FLAG 1088 720 o3
FLAG 912 192 a1
FLAG 912 448 a2
FLAG 896 752 a3
FLAG 912 224 b1
FLAG 912 480 b2
FLAG 896 784 b3
FLAG 976 336 vdd
FLAG 944 640 vdd
FLAG 944 848 vss
FLAG 960 544 vss
FLAG 960 272 vss
FLAG 912 352 sel
FLAG 912 96 sel
FLAG 896 656 sel
SYMBOL mux2x1 960 160 R0
SYMATTR InstName X1
SYMATTR SpiceLine ll=180n wn={nnw} wp={nnw*mp}
SYMBOL mux2x1 960 416 R0
SYMATTR InstName X2
SYMATTR SpiceLine ll=180n wn={nnw} wp={nnw*mp}
SYMBOL mux2x1 944 720 R0
SYMATTR InstName X3
SYMATTR SpiceLine ll=180n wn={nnw} wp={nnw*mp}
