Version 4
SHEET 1 1268 996
WIRE 320 -96 320 -112
WIRE 496 -96 320 -96
WIRE 608 -96 496 -96
WIRE 320 0 320 -96
WIRE 320 0 80 0
WIRE 496 0 496 -96
WIRE 544 0 496 0
WIRE 496 16 496 0
WIRE 320 48 320 0
WIRE 320 48 240 48
WIRE 544 64 544 0
WIRE 544 64 496 64
WIRE 608 80 608 -96
WIRE 672 80 608 80
WIRE 448 96 432 96
WIRE 608 112 608 80
WIRE 240 128 240 48
WIRE 288 128 240 128
WIRE 672 160 672 80
WIRE 672 160 608 160
WIRE 288 176 288 128
WIRE 288 176 240 176
WIRE 496 192 496 112
WIRE 560 192 496 192
WIRE 176 208 -112 208
WIRE 192 208 176 208
WIRE 80 224 80 0
WIRE 112 224 80 224
WIRE 496 224 496 192
WIRE 496 224 352 224
WIRE 80 240 80 224
WIRE 608 240 608 208
WIRE 176 256 176 208
WIRE 384 256 176 256
WIRE 432 256 432 96
WIRE 432 256 384 256
WIRE 240 272 240 224
WIRE 288 272 240 272
WIRE 496 272 496 224
WIRE 112 288 112 224
WIRE 112 288 80 288
WIRE 240 288 240 272
WIRE 672 288 672 160
WIRE 672 288 608 288
WIRE 32 320 16 320
WIRE 528 320 496 320
WIRE 288 336 288 272
WIRE 288 336 240 336
WIRE 432 352 432 256
WIRE 448 352 432 352
WIRE 80 368 80 336
WIRE 128 368 80 368
WIRE 192 368 128 368
WIRE 608 368 608 336
WIRE 848 368 608 368
WIRE 608 384 608 368
WIRE 608 384 240 384
WIRE 16 400 16 320
WIRE 560 400 560 320
WIRE 560 400 16 400
WIRE 80 416 80 368
WIRE 128 432 128 368
WIRE 192 432 128 432
WIRE 496 448 496 368
WIRE 528 448 528 320
WIRE 528 448 496 448
WIRE 112 464 80 464
WIRE 16 496 16 400
WIRE 32 496 16 496
WIRE 608 512 608 384
WIRE 352 528 352 224
WIRE 352 528 128 528
WIRE 16 560 16 496
WIRE 16 560 -192 560
WIRE 80 560 80 512
WIRE 112 560 112 464
WIRE 112 560 80 560
WIRE 192 560 192 432
WIRE 192 560 160 560
WIRE 240 560 240 384
WIRE 656 560 608 560
WIRE 384 592 384 256
WIRE 560 592 384 592
WIRE 288 608 240 608
WIRE 608 624 608 608
WIRE 656 624 656 560
WIRE 656 624 608 624
WIRE 128 640 128 528
WIRE 192 640 128 640
WIRE 608 656 608 624
WIRE 16 672 16 560
WIRE 448 672 16 672
WIRE 240 688 240 656
WIRE 656 704 608 704
WIRE 288 736 288 608
WIRE 288 736 240 736
WIRE 448 736 448 672
WIRE 560 736 448 736
WIRE 160 768 160 560
WIRE 192 768 160 768
WIRE 608 768 608 752
WIRE 656 768 656 704
WIRE 656 768 608 768
WIRE 240 816 240 784
WIRE 288 816 288 736
WIRE 288 816 240 816
WIRE 80 880 80 560
WIRE 240 880 240 816
WIRE 240 880 80 880
WIRE 464 880 240 880
WIRE 496 880 496 448
WIRE 496 880 464 880
WIRE 608 880 608 768
WIRE 608 880 496 880
WIRE 464 912 464 880
FLAG -112 208 in1
FLAG -192 560 in2
FLAG 464 912 vss
FLAG 320 -112 vdd
FLAG 848 368 Q
SYMBOL pmos4 192 128 R0
SYMATTR InstName M1
SYMATTR Value2 l={ll} w={wp} ad={450n*{wp}} as={450n*{wp}} pd={900n+{wp}} ps={1080n+{wp}}
SYMBOL pmos4 560 240 R0
SYMATTR InstName M2
SYMATTR Value2 l={ll} w={wp} ad={450n*{wp}} as={450n*{wp}} pd={900n+{wp}} ps={1080n+{wp}}
SYMBOL nmos4 560 512 R0
SYMATTR InstName M7
SYMATTR Value2 l={ll} w={wn} ad={450n*{wn}} as={450n*{wn}} pd={900n+{wn}} ps={1080n+{wn}}
SYMBOL nmos4 560 656 R0
SYMATTR InstName M8
SYMATTR Value2 l={ll} w={wn} ad={450n*{wn}} as={450n*{wn}} pd={900n+{wn}} ps={1080n+{wn}}
SYMBOL pmos4 560 112 R0
SYMATTR InstName M5
SYMATTR Value2 l={ll} w={wp} ad={450n*{wp}} as={450n*{wp}} pd={900n+{wp}} ps={1080n+{wp}}
SYMBOL pmos4 192 288 R0
SYMATTR InstName M6
SYMATTR Value2 l={ll} w={wp} ad={450n*{wp}} as={450n*{wp}} pd={900n+{wp}} ps={1080n+{wp}}
SYMBOL pmos4 32 240 R0
SYMATTR InstName M9
SYMATTR Value2 l={ll} w={wp} ad={450n*{wp}} as={450n*{wp}} pd={900n+{wp}} ps={1080n+{wp}}
SYMBOL pmos4 448 16 R0
SYMATTR InstName M10
SYMATTR Value2 l={ll} w={wp} ad={450n*{wp}} as={450n*{wp}} pd={900n+{wp}} ps={1080n+{wp}}
SYMBOL nmos4 32 416 R0
SYMATTR InstName M11
SYMATTR Value2 l={ll} w={wn} ad={450n*{wn}} as={450n*{wn}} pd={900n+{wn}} ps={1080n+{wn}}
SYMBOL nmos4 448 272 R0
SYMATTR InstName M12
SYMATTR Value2 l={ll} w={wn} ad={450n*{wn}} as={450n*{wn}} pd={900n+{wn}} ps={1080n+{wn}}
SYMBOL nmos4 192 560 R0
SYMATTR InstName M3
SYMATTR Value2 l={ll} w={wn} ad={450n*{wn}} as={450n*{wn}} pd={900n+{wn}} ps={1080n+{wn}}
SYMBOL nmos4 192 688 R0
SYMATTR InstName M4
SYMATTR Value2 l={ll} w={wn} ad={450n*{wn}} as={450n*{wn}} pd={900n+{wn}} ps={1080n+{wn}}
TEXT -32 72 Left 2 !.lib BU_180nm.lib
TEXT 808 56 Left 2 ;Parametres requis: \nll=longueur \nwn=largeur_nmos \nwp=largeur_pmos\nla capacité est déterminées par:\nAD=AS={450n*{wp}}\nPD={900n+{wp}} ou {900n+{wn}}\nPS={1080n+{wp}} ou {1080n+{wn}}
